*SPEF "1481-1998"
*DESIGN "FPMultiplier"
*DATE "Tue Dec 29 01:18:32 2015"
*VENDOR "Synopsys, Inc."
*PROGRAM "icc_shell"
*VERSION "G-2012.06-ICC-SP2"
*DESIGN_FLOW "PIN_CAP NONE"
*DIVIDER /
*DELIMITER :
*BUS_DELIMITER [ ]
*T_UNIT 1 NS
*C_UNIT 1 FF
*R_UNIT 1 OHM
*L_UNIT 1 HENRY

*NAME_MAP
*1 a[0]
*2 VDD
*3 VSS
*4 a[8]
*5 a[7]
*6 a[6]
*7 a[5]
*8 a[4]
*9 a[3]
*10 a[2]
*11 a[1]
*12 a[16]
*13 a[15]
*14 a[14]
*15 a[13]
*16 a[12]
*17 a[11]
*18 a[10]
*19 a[9]
*20 a[24]
*21 a[23]
*22 a[22]
*23 a[21]
*24 a[20]
*25 a[19]
*26 a[18]
*27 a[17]
*28 b[0]
*29 a[31]
*30 a[30]
*31 a[29]
*32 a[28]
*33 a[27]
*34 a[26]
*35 a[25]
*36 b[8]
*37 b[7]
*38 b[6]
*39 b[5]
*40 b[4]
*41 b[3]
*42 b[2]
*43 b[1]
*44 b[16]
*45 b[15]
*46 b[14]
*47 b[13]
*48 b[12]
*49 b[11]
*50 b[10]
*51 b[9]
*52 b[24]
*53 b[23]
*54 b[22]
*55 b[21]
*56 b[20]
*57 b[19]
*58 b[18]
*59 b[17]
*60 result[0]
*61 b[31]
*62 b[30]
*63 b[29]
*64 b[28]
*65 b[27]
*66 b[26]
*67 b[25]
*68 result[8]
*69 result[7]
*70 result[6]
*71 result[5]
*72 result[4]
*73 result[3]
*74 result[2]
*75 result[1]
*76 result[16]
*77 result[15]
*78 result[14]
*79 result[13]
*80 result[12]
*81 result[11]
*82 result[10]
*83 result[9]
*84 result[24]
*85 result[23]
*86 result[22]
*87 result[21]
*88 result[20]
*89 result[19]
*90 result[18]
*91 result[17]
*92 clk
*93 result[31]
*94 result[30]
*95 result[29]
*96 result[28]
*97 result[27]
*98 result[26]
*99 result[25]
*100 mult_17/n1833
*101 mult_17/U2316
*102 mult_17/U1487
*103 mult_17/n2335
*104 mult_17/U1665
*105 mult_17/U1212
*106 mult_17/U1196
*107 mult_17/n686
*108 mult_17/U2315
*109 mult_17/U2189
*110 mult_17/U1555
*111 mult_17/U1476
*112 mult_17/n2294
*113 mult_17/U2289
*114 mult_17/U2285
*115 mult_17/U2281
*116 mult_17/U2277
*117 mult_17/U50
*118 mult_17/U2314
*119 mult_17/U2311
*120 mult_17/U2308
*121 mult_17/U2304
*122 mult_17/U2300
*123 mult_17/U2296
*124 mult_17/U2293
*125 mult_17/n2336
*126 mult_17/U2313
*127 mult_17/n685
*128 mult_17/U1467
*129 mult_17/U1323
*130 mult_17/n2337
*131 mult_17/n2331
*132 mult_17/U1279
*133 mult_17/U1278
*134 mult_17/n1884
*135 mult_17/U1723
*136 mult_17/U1506
*137 mult_17/U31
*138 mult_17/U2312
*139 mult_17/U2309
*140 mult_17/U2305
*141 mult_17/U2301
*142 mult_17/U2297
*143 mult_17/U2294
*144 mult_17/U2290
*145 mult_17/U2286
*146 mult_17/n1733
*147 mult_17/U2257
*148 mult_17/U2254
*149 mult_17/U2251
*150 mult_17/U2249
*151 mult_17/U1728
*152 mult_17/U38
*153 mult_17/U2282
*154 mult_17/U2278
*155 mult_17/U2274
*156 mult_17/U2271
*157 mult_17/U2267
*158 mult_17/U2264
*159 mult_17/U2262
*160 mult_17/U2260
*161 mult_17/n2334
*162 b_reg\[3\]
*163 mult_17/U1514
*164 mult_17/U1503
*165 mult_17/U1182
*166 mult_17/U269
*167 U168
*168 b_reg_reg_3_
*169 mult_17/U16
*170 mult_17/U1891
*171 mult_17/U1888
*172 mult_17/U1815
*173 mult_17/U1812
*174 mult_17/U1741
*175 mult_17/U1738
*176 mult_17/U1568
*177 mult_17/U1566
*178 mult_17/U2193
*179 mult_17/U2124
*180 mult_17/U2121
*181 mult_17/U2046
*182 mult_17/U2043
*183 mult_17/U1968
*184 mult_17/U1965
*185 mult_17/n684
*186 mult_17/U1464
*187 mult_17/n2333
*188 mult_17/U2310
*189 mult_17/n2332
*190 mult_17/U1280
*191 mult_17/n2330
*192 b_reg\[4\]
*193 mult_17/U1567
*194 mult_17/U1180
*195 mult_17/U262
*196 b_reg_reg_4_
*197 mult_17/U13
*198 mult_17/U1894
*199 mult_17/U1818
*200 mult_17/U1744
*201 mult_17/U2195
*202 mult_17/U2127
*203 mult_17/U2049
*204 mult_17/U1971
*205 mult_17/n683
*206 mult_17/U1502
*207 mult_17/U1473
*208 mult_17/n2329
*209 mult_17/U2307
*210 mult_17/n2328
*211 mult_17/U2306
*212 mult_17/n2327
*213 mult_17/U1191
*214 mult_17/n1826
*215 mult_17/U1427
*216 mult_17/n2323
*217 mult_17/U2302
*218 mult_17/n2326
*219 b_reg\[5\]
*220 mult_17/U1179
*221 mult_17/U255
*222 b_reg_reg_5_
*223 mult_17/U12
*224 mult_17/U1897
*225 mult_17/U1821
*226 mult_17/U1747
*227 mult_17/U2197
*228 mult_17/U2130
*229 mult_17/U2052
*230 mult_17/U1974
*231 mult_17/n682
*232 mult_17/U1465
*233 mult_17/n2325
*234 mult_17/U2303
*235 mult_17/n2324
*236 mult_17/n557
*237 mult_17/U372
*238 mult_17/n2319
*239 mult_17/U2298
*240 mult_17/n2322
*241 b_reg\[6\]
*242 mult_17/U1558
*243 mult_17/U1556
*244 mult_17/U240
*245 U166
*246 b_reg_reg_6_
*247 mult_17/U11
*248 mult_17/U1900
*249 mult_17/U1824
*250 mult_17/U1750
*251 mult_17/U1559
*252 mult_17/U2199
*253 mult_17/U2133
*254 mult_17/U2055
*255 mult_17/U1977
*256 mult_17/n681
*257 mult_17/U1470
*258 mult_17/n2321
*259 mult_17/U2299
*260 mult_17/n2320
*261 mult_17/n1823
*262 mult_17/U1431
*263 mult_17/n2315
*264 mult_17/U1586
*265 mult_17/U1585
*266 mult_17/n2318
*267 b_reg\[7\]
*268 mult_17/U1557
*269 mult_17/U1177
*270 mult_17/U234
*271 b_reg_reg_7_
*272 mult_17/U10
*273 mult_17/U1903
*274 mult_17/U1827
*275 mult_17/U1753
*276 mult_17/U2201
*277 mult_17/U2136
*278 mult_17/U2058
*279 mult_17/U1980
*280 mult_17/n680
*281 mult_17/U1472
*282 mult_17/U1398
*283 mult_17/n2317
*284 mult_17/U2295
*285 mult_17/n2316
*286 mult_17/U1587
*287 mult_17/n2314
*288 b_reg\[8\]
*289 mult_17/U1678
*290 mult_17/U1505
*291 b_reg_reg_8_
*292 mult_17/U9
*293 mult_17/U1906
*294 mult_17/U1830
*295 mult_17/U1756
*296 mult_17/U1679
*297 mult_17/U2203
*298 mult_17/U2139
*299 mult_17/U2061
*300 mult_17/U1983
*301 mult_17/n679
*302 mult_17/U1469
*303 mult_17/n2313
*304 mult_17/U2292
*305 mult_17/n2312
*306 mult_17/U2291
*307 mult_17/n2311
*308 mult_17/U1192
*309 mult_17/n1822
*310 mult_17/U1429
*311 mult_17/n2307
*312 mult_17/U2287
*313 mult_17/n2310
*314 b_reg\[9\]
*315 mult_17/U1677
*316 mult_17/U1175
*317 mult_17/U216
*318 b_reg_reg_9_
*319 mult_17/U8
*320 mult_17/U1909
*321 mult_17/U1833
*322 mult_17/U1759
*323 mult_17/U2205
*324 mult_17/U2142
*325 mult_17/U2064
*326 mult_17/U1986
*327 mult_17/n678
*328 mult_17/U1504
*329 mult_17/U1474
*330 mult_17/n2309
*331 mult_17/U2288
*332 mult_17/n2308
*333 mult_17/n539
*334 mult_17/U1445
*335 mult_17/n2303
*336 mult_17/U2283
*337 mult_17/n2306
*338 b_reg\[10\]
*339 mult_17/U1564
*340 mult_17/U1562
*341 mult_17/U1561
*342 mult_17/U221
*343 U177
*344 b_reg_reg_10_
*345 mult_17/U1989
*346 mult_17/U1912
*347 mult_17/U1836
*348 mult_17/U1761
*349 mult_17/U2207
*350 mult_17/U2145
*351 mult_17/U2067
*352 mult_17/U7
*353 mult_17/n677
*354 mult_17/U1468
*355 mult_17/n2305
*356 mult_17/U2284
*357 mult_17/n2304
*358 mult_17/n1817
*359 mult_17/U1430
*360 mult_17/n2299
*361 mult_17/U2279
*362 mult_17/n1883
*363 mult_17/U51
*364 mult_17/n2302
*365 mult_17/n676
*366 mult_17/U1471
*367 mult_17/U1397
*368 mult_17/n2301
*369 mult_17/U2280
*370 mult_17/n2300
*371 mult_17/n527
*372 mult_17/U1396
*373 mult_17/n2295
*374 mult_17/U2275
*375 mult_17/n2298
*376 b_reg\[11\]
*377 mult_17/U1563
*378 mult_17/U1173
*379 b_reg_reg_11_
*380 mult_17/U6
*381 mult_17/U1915
*382 mult_17/U1839
*383 mult_17/U1764
*384 mult_17/U2209
*385 mult_17/U2148
*386 mult_17/U2070
*387 mult_17/U1992
*388 mult_17/n675
*389 mult_17/U1466
*390 mult_17/n2297
*391 mult_17/U2276
*392 mult_17/n2296
*393 mult_17/n1474
*394 mult_17/U1204
*395 mult_17/n2290
*396 mult_17/U1536
*397 mult_17/U1535
*398 mult_17/n2293
*399 mult_17/U2273
*400 b_reg\[13\]
*401 mult_17/U1332
*402 mult_17/U1330
*403 mult_17/U1328
*404 mult_17/U1171
*405 mult_17/U201
*406 U178
*407 b_reg_reg_13_
*408 mult_17/U1998
*409 mult_17/U1995
*410 mult_17/U1921
*411 mult_17/U1918
*412 mult_17/U1845
*413 mult_17/U1842
*414 mult_17/U1769
*415 mult_17/U1767
*416 mult_17/U2270
*417 mult_17/U2213
*418 mult_17/U2211
*419 mult_17/U2154
*420 mult_17/U2151
*421 mult_17/U2076
*422 mult_17/U2073
*423 mult_17/U4
*424 b_reg\[12\]
*425 mult_17/U1331
*426 mult_17/U205
*427 b_reg_reg_12_
*428 mult_17/U5
*429 mult_17/n2292
*430 mult_17/U2272
*431 mult_17/n2291
*432 mult_17/U1537
*433 mult_17/n1849
*434 mult_17/U1459
*435 mult_17/U2214
*436 mult_17/U2153
*437 mult_17/U2075
*438 mult_17/U1997
*439 mult_17/U1920
*440 mult_17/U1844
*441 mult_17/U1768
*442 mult_17/n2289
*443 b_reg\[14\]
*444 mult_17/U1619
*445 mult_17/U1617
*446 mult_17/U1512
*447 b_reg_reg_14_
*448 mult_17/U2001
*449 mult_17/U1924
*450 mult_17/U1848
*451 mult_17/U1771
*452 mult_17/U2266
*453 mult_17/U2215
*454 mult_17/U2157
*455 mult_17/U2079
*456 mult_17/U3
*457 mult_17/n2288
*458 mult_17/U2269
*459 mult_17/n2287
*460 mult_17/U2268
*461 mult_17/n2286
*462 mult_17/U1281
*463 mult_17/n1475
*464 mult_17/U1205
*465 mult_17/n2282
*466 mult_17/U1583
*467 mult_17/U1582
*468 mult_17/n1632
*469 mult_17/U1218
*470 mult_17/U2216
*471 mult_17/U2156
*472 mult_17/U2078
*473 mult_17/U2000
*474 mult_17/U1923
*475 mult_17/U1847
*476 mult_17/U1219
*477 mult_17/n2285
*478 b_reg\[15\]
*479 mult_17/U1618
*480 mult_17/U1351
*481 mult_17/U1169
*482 mult_17/U189
*483 b_reg_reg_15_
*484 mult_17/U1927
*485 mult_17/U1851
*486 mult_17/U1774
*487 mult_17/U2217
*488 mult_17/U2160
*489 mult_17/U2082
*490 mult_17/U2004
*491 mult_17/U2
*492 mult_17/n2284
*493 mult_17/U2265
*494 mult_17/n2283
*495 mult_17/U1584
*496 mult_17/n1846
*497 mult_17/U1457
*498 mult_17/U2218
*499 mult_17/U2159
*500 mult_17/U2081
*501 mult_17/U2003
*502 mult_17/U1926
*503 mult_17/U1850
*504 mult_17/U1773
*505 mult_17/n2281
*506 mult_17/U1352
*507 mult_17/n2280
*508 mult_17/U2263
*509 mult_17/n2279
*510 mult_17/U1534
*511 mult_17/n1634
*512 mult_17/U1193
*513 mult_17/U2220
*514 mult_17/U1853
*515 mult_17/U1524
*516 mult_17/U1523
*517 mult_17/U1515
*518 mult_17/U1513
*519 mult_17/U1220
*520 mult_17/n2277
*521 mult_17/U1592
*522 mult_17/n2276
*523 mult_17/U2261
*524 mult_17/n2275
*525 mult_17/U1355
*526 mult_17/U1353
*527 mult_17/n2274
*528 mult_17/U1581
*529 mult_17/n2273
*530 mult_17/U2259
*531 mult_17/n2272
*532 mult_17/U2258
*533 mult_17/n2271
*534 mult_17/U1235
*535 mult_17/n1476
*536 mult_17/U1206
*537 mult_17/n2267
*538 mult_17/U1389
*539 mult_17/U1388
*540 mult_17/n1630
*541 mult_17/U1859
*542 mult_17/U1781
*543 mult_17/U1510
*544 mult_17/U2224
*545 mult_17/U2167
*546 mult_17/U2089
*547 mult_17/U2011
*548 mult_17/U1934
*549 mult_17/n2270
*550 mult_17/U2256
*551 b_reg\[19\]
*552 mult_17/U1674
*553 mult_17/U1615
*554 mult_17/U1511
*555 mult_17/U1165
*556 mult_17/U180
*557 U167
*558 b_reg_reg_19_
*559 mult_17/U2012
*560 mult_17/U1938
*561 mult_17/U1935
*562 mult_17/U1862
*563 mult_17/U1860
*564 mult_17/U1785
*565 mult_17/U1782
*566 mult_17/U1675
*567 mult_17/U2225
*568 mult_17/U2223
*569 mult_17/U2171
*570 mult_17/U2168
*571 mult_17/U2093
*572 mult_17/U2090
*573 mult_17/U2015
*574 mult_17/U28
*575 b_reg\[18\]
*576 mult_17/U1673
*577 mult_17/U1579
*578 mult_17/U1167
*579 mult_17/U182
*580 b_reg_reg_18_
*581 mult_17/U2009
*582 mult_17/U1932
*583 mult_17/U1857
*584 mult_17/U1779
*585 mult_17/U2221
*586 mult_17/U2165
*587 mult_17/U2087
*588 mult_17/U29
*589 mult_17/n2269
*590 mult_17/U2255
*591 mult_17/n2268
*592 mult_17/U1390
*593 mult_17/n2266
*594 mult_17/U1276
*595 mult_17/n2265
*596 mult_17/U2253
*597 mult_17/n2264
*598 mult_17/U2252
*599 mult_17/n2263
*600 mult_17/U1260
*601 mult_17/n1801
*602 mult_17/U1616
*603 mult_17/n2259
*604 mult_17/U1643
*605 mult_17/U1642
*606 mult_17/n1628
*607 mult_17/U1940
*608 mult_17/U1864
*609 mult_17/U1787
*610 mult_17/U1508
*611 mult_17/U2228
*612 mult_17/U2173
*613 mult_17/U2095
*614 mult_17/U2017
*615 mult_17/n2262
*616 mult_17/U1624
*617 mult_17/n2261
*618 mult_17/U2250
*619 mult_17/n2260
*620 mult_17/U1644
*621 mult_17/n2258
*622 mult_17/U1633
*623 mult_17/n2257
*624 mult_17/U2248
*625 mult_17/n2256
*626 mult_17/U2247
*627 mult_17/n1682
*628 mult_17/U1589
*629 mult_17/n2255
*630 mult_17/U1645
*631 mult_17/n1796
*632 mult_17/U1682
*633 mult_17/n150
*634 mult_17/U150
*635 a_reg\[21\]
*636 mult_17/U2246
*637 mult_17/U2241
*638 U169
*639 a_reg_reg_21_
*640 mult_17/n2253
*641 mult_17/U2244
*642 mult_17/U2238
*643 mult_17/U1481
*644 a_reg\[22\]
*645 mult_17/U2245
*646 mult_17/U2240
*647 a_reg_reg_22_
*648 mult_17/n1800
*649 mult_17/n2224
*650 mult_17/U2219
*651 mult_17/U2227
*652 mult_17/U2233
*653 mult_17/U2243
*654 mult_17/U1198
*655 mult_17/U2190
*656 mult_17/n2223
*657 mult_17/U2239
*658 mult_17/U2235
*659 mult_17/U2230
*660 mult_17/U42
*661 mult_17/n434
*662 mult_17/U1475
*663 mult_17/U304
*664 mult_17/n641
*665 mult_17/U2242
*666 mult_17/U2234
*667 mult_17/U1163
*668 b_reg\[22\]
*669 mult_17/U1194
*670 mult_17/U175
*671 U183
*672 b_reg_reg_22_
*673 mult_17/U25
*674 mult_17/U1943
*675 mult_17/U1874
*676 mult_17/U1867
*677 mult_17/U1798
*678 mult_17/U1791
*679 mult_17/U1726
*680 mult_17/U1530
*681 mult_17/U2183
*682 mult_17/U2106
*683 mult_17/U2098
*684 mult_17/U2028
*685 mult_17/U2020
*686 mult_17/U1950
*687 mult_17/n1888
*688 mult_17/U59
*689 mult_17/U2185
*690 mult_17/U2108
*691 mult_17/U2030
*692 mult_17/U1952
*693 mult_17/U1876
*694 mult_17/U1800
*695 mult_17/n2254
*696 mult_17/n2252
*697 mult_17/U52
*698 mult_17/n687
*699 mult_17/n2246
*700 mult_17/U2237
*701 mult_17/U2236
*702 mult_17/U2229
*703 mult_17/U41
*704 mult_17/n2250
*705 mult_17/n2251
*706 mult_17/n688
*707 mult_17/U177
*708 mult_17/n2218
*709 mult_17/U1408
*710 mult_17/n2249
*711 mult_17/U2232
*712 mult_17/U2231
*713 mult_17/n2247
*714 mult_17/n2248
*715 mult_17/n689
*716 mult_17/U179
*717 mult_17/n2245
*718 mult_17/n2244
*719 b_reg\[21\]
*720 b_reg_reg_21_
*721 mult_17/U26
*722 mult_17/U1722
*723 mult_17/U1622
*724 mult_17/U1577
*725 mult_17/U1575
*726 mult_17/U1531
*727 mult_17/U1509
*728 mult_17/U1941
*729 mult_17/U1870
*730 mult_17/U1865
*731 mult_17/U1794
*732 mult_17/U1788
*733 mult_17/U2179
*734 mult_17/U2174
*735 mult_17/U2102
*736 mult_17/U2096
*737 mult_17/U2024
*738 mult_17/U2018
*739 mult_17/U1946
*740 b_reg\[20\]
*741 mult_17/U1576
*742 b_reg_reg_20_
*743 mult_17/U1623
*744 mult_17/U1614
*745 mult_17/U27
*746 mult_17/n691
*747 mult_17/U185
*748 mult_17/n1840
*749 mult_17/U2226
*750 mult_17/U2170
*751 mult_17/U2092
*752 mult_17/U2014
*753 mult_17/U1937
*754 mult_17/U1784
*755 mult_17/U1223
*756 mult_17/U1195
*757 mult_17/n2243
*758 mult_17/n692
*759 mult_17/U188
*760 mult_17/n2242
*761 mult_17/n693
*762 mult_17/U192
*763 mult_17/n1843
*764 mult_17/U2222
*765 mult_17/U2164
*766 mult_17/U2086
*767 mult_17/U2008
*768 mult_17/U1931
*769 mult_17/U1856
*770 mult_17/U1778
*771 mult_17/U1458
*772 mult_17/n2241
*773 b_reg\[17\]
*774 mult_17/U1573
*775 mult_17/U1572
*776 mult_17/U1570
*777 b_reg_reg_17_
*778 mult_17/U1929
*779 mult_17/U1854
*780 mult_17/U1776
*781 mult_17/U1590
*782 mult_17/U1580
*783 mult_17/U2162
*784 mult_17/U2084
*785 mult_17/U2006
*786 mult_17/U30
*787 mult_17/n694
*788 mult_17/U196
*789 mult_17/n2240
*790 b_reg\[16\]
*791 mult_17/U1571
*792 mult_17/U1350
*793 b_reg_reg_16_
*794 mult_17/U1591
*795 mult_17/U1
*796 mult_17/n695
*797 mult_17/U200
*798 mult_17/n2239
*799 mult_17/n696
*800 mult_17/U204
*801 mult_17/n2238
*802 mult_17/n697
*803 mult_17/U210
*804 mult_17/n2237
*805 mult_17/n698
*806 mult_17/U215
*807 mult_17/n2236
*808 mult_17/U2212
*809 mult_17/n699
*810 mult_17/n1853
*811 mult_17/U2210
*812 mult_17/U2147
*813 mult_17/U2069
*814 mult_17/U1991
*815 mult_17/U1914
*816 mult_17/U1838
*817 mult_17/U1763
*818 mult_17/n2235
*819 mult_17/n700
*820 mult_17/U227
*821 mult_17/n1855
*822 mult_17/U2208
*823 mult_17/U2144
*824 mult_17/U2066
*825 mult_17/U1988
*826 mult_17/U1911
*827 mult_17/U1835
*828 mult_17/U1760
*829 mult_17/n2234
*830 mult_17/n701
*831 mult_17/U233
*832 mult_17/n1857
*833 mult_17/U2206
*834 mult_17/U2141
*835 mult_17/U2063
*836 mult_17/U1985
*837 mult_17/U1908
*838 mult_17/U1832
*839 mult_17/U1758
*840 mult_17/n2233
*841 mult_17/n702
*842 mult_17/U239
*843 mult_17/n1859
*844 mult_17/U2204
*845 mult_17/U2138
*846 mult_17/U2060
*847 mult_17/U1982
*848 mult_17/U1905
*849 mult_17/U1829
*850 mult_17/U1755
*851 mult_17/n2232
*852 mult_17/n703
*853 mult_17/U247
*854 mult_17/n1861
*855 mult_17/U2202
*856 mult_17/U2135
*857 mult_17/U2057
*858 mult_17/U1979
*859 mult_17/U1902
*860 mult_17/U1826
*861 mult_17/U1752
*862 mult_17/n2231
*863 mult_17/n704
*864 mult_17/U254
*865 mult_17/n1863
*866 mult_17/U2200
*867 mult_17/U2132
*868 mult_17/U2054
*869 mult_17/U1976
*870 mult_17/U1899
*871 mult_17/U1823
*872 mult_17/U1749
*873 mult_17/n2230
*874 mult_17/n705
*875 mult_17/U261
*876 mult_17/n1865
*877 mult_17/U2198
*878 mult_17/U2129
*879 mult_17/U2051
*880 mult_17/U1973
*881 mult_17/U1896
*882 mult_17/U1820
*883 mult_17/U1746
*884 mult_17/n2229
*885 mult_17/n706
*886 mult_17/n1867
*887 mult_17/U2196
*888 mult_17/U2126
*889 mult_17/U2048
*890 mult_17/U1970
*891 mult_17/U1893
*892 mult_17/U1817
*893 mult_17/U1743
*894 mult_17/n2228
*895 mult_17/n707
*896 mult_17/U276
*897 mult_17/n1869
*898 mult_17/U2194
*899 mult_17/U2123
*900 mult_17/U2045
*901 mult_17/U1967
*902 mult_17/U1890
*903 mult_17/U1814
*904 mult_17/U1740
*905 mult_17/n2227
*906 mult_17/n708
*907 mult_17/U283
*908 mult_17/n1871
*909 mult_17/U2192
*910 mult_17/U2120
*911 mult_17/U2042
*912 mult_17/U1964
*913 mult_17/U1887
*914 mult_17/U1811
*915 mult_17/U1737
*916 mult_17/n2226
*917 mult_17/n1873
*918 mult_17/U2191
*919 mult_17/U2117
*920 mult_17/U2039
*921 mult_17/U1961
*922 mult_17/U1884
*923 mult_17/U1808
*924 mult_17/U1734
*925 mult_17/n2225
*926 mult_17/n710
*927 mult_17/U297
*928 mult_17/n711
*929 a_reg\[18\]
*930 mult_17/U2188
*931 mult_17/U2186
*932 U171
*933 a_reg_reg_18_
*934 mult_17/n2217
*935 mult_17/U1715
*936 mult_17/U1461
*937 mult_17/U1423
*938 a_reg\[19\]
*939 mult_17/U2187
*940 a_reg_reg_19_
*941 mult_17/n2216
*942 mult_17/U1478
*943 mult_17/n2221
*944 mult_17/U1716
*945 mult_17/n2169
*946 mult_17/U2150
*947 mult_17/U2176
*948 mult_17/U39
*949 mult_17/n2222
*950 mult_17/U2184
*951 mult_17/n713
*952 mult_17/U181
*953 mult_17/n2172
*954 mult_17/U2118
*955 mult_17/U54
*956 mult_17/n2220
*957 mult_17/U2182
*958 mult_17/n2219
*959 mult_17/U2181
*960 mult_17/n714
*961 mult_17/U184
*962 mult_17/n2215
*963 mult_17/U2180
*964 mult_17/n2214
*965 mult_17/U2178
*966 mult_17/n1835
*967 mult_17/U2101
*968 mult_17/U2023
*969 mult_17/U1945
*970 mult_17/U1869
*971 mult_17/U1793
*972 mult_17/U1721
*973 mult_17/n2213
*974 mult_17/U2177
*975 mult_17/n715
*976 mult_17/U187
*977 mult_17/n2212
*978 a_reg\[20\]
*979 mult_17/U2175
*980 mult_17/U329
*981 a_reg_reg_20_
*982 mult_17/U19
*983 mult_17/n2211
*984 mult_17/n716
*985 mult_17/U190
*986 mult_17/n2171
*987 mult_17/U46
*988 mult_17/n2210
*989 mult_17/n2209
*990 mult_17/U2172
*991 mult_17/n717
*992 mult_17/U195
*993 mult_17/n2208
*994 mult_17/n2207
*995 mult_17/U2169
*996 mult_17/n718
*997 mult_17/U199
*998 mult_17/n2206
*999 mult_17/n2205
*1000 mult_17/U2166
*1001 mult_17/n719
*1002 mult_17/n2204
*1003 mult_17/n2203
*1004 mult_17/U2163
*1005 mult_17/n720
*1006 mult_17/U209
*1007 mult_17/n2202
*1008 mult_17/n2201
*1009 mult_17/U2161
*1010 mult_17/n721
*1011 mult_17/U214
*1012 mult_17/n2200
*1013 mult_17/n2199
*1014 mult_17/U2158
*1015 mult_17/n722
*1016 mult_17/U219
*1017 mult_17/n2198
*1018 mult_17/n2197
*1019 mult_17/U2155
*1020 mult_17/n723
*1021 mult_17/U226
*1022 mult_17/n2196
*1023 mult_17/n2195
*1024 mult_17/U2152
*1025 mult_17/n724
*1026 mult_17/U232
*1027 mult_17/n2194
*1028 mult_17/n2193
*1029 mult_17/U2149
*1030 mult_17/n725
*1031 mult_17/U238
*1032 mult_17/n2192
*1033 mult_17/n2191
*1034 mult_17/U2146
*1035 mult_17/n726
*1036 mult_17/U246
*1037 mult_17/n2190
*1038 mult_17/n2189
*1039 mult_17/U2143
*1040 mult_17/n727
*1041 mult_17/U253
*1042 mult_17/n2188
*1043 mult_17/n2187
*1044 mult_17/U2140
*1045 mult_17/n728
*1046 mult_17/U260
*1047 mult_17/n2186
*1048 mult_17/n2185
*1049 mult_17/U2137
*1050 mult_17/n729
*1051 mult_17/U267
*1052 mult_17/n2184
*1053 mult_17/n2183
*1054 mult_17/U2134
*1055 mult_17/n730
*1056 mult_17/U275
*1057 mult_17/n2182
*1058 mult_17/n2181
*1059 mult_17/U2131
*1060 mult_17/n731
*1061 mult_17/U282
*1062 mult_17/n2180
*1063 mult_17/n2179
*1064 mult_17/U2128
*1065 mult_17/n732
*1066 mult_17/U289
*1067 mult_17/n2178
*1068 mult_17/n2177
*1069 mult_17/U2125
*1070 mult_17/n733
*1071 mult_17/U296
*1072 mult_17/n2176
*1073 mult_17/n2175
*1074 mult_17/U2122
*1075 mult_17/n734
*1076 mult_17/U303
*1077 mult_17/n2174
*1078 mult_17/n2173
*1079 mult_17/U2119
*1080 mult_17/n735
*1081 mult_17/U310
*1082 mult_17/n2170
*1083 mult_17/n2168
*1084 mult_17/U2116
*1085 mult_17/n736
*1086 mult_17/U317
*1087 mult_17/n1875
*1088 mult_17/U2115
*1089 mult_17/U2037
*1090 mult_17/U1959
*1091 mult_17/U1882
*1092 mult_17/U1806
*1093 mult_17/U1732
*1094 mult_17/n2167
*1095 mult_17/U2114
*1096 mult_17/n737
*1097 mult_17/U323
*1098 mult_17/n2166
*1099 mult_17/U2113
*1100 mult_17/U2112
*1101 mult_17/n738
*1102 a_reg\[15\]
*1103 mult_17/U2111
*1104 mult_17/U2109
*1105 U172
*1106 a_reg_reg_15_
*1107 mult_17/n2161
*1108 mult_17/U1714
*1109 mult_17/U1463
*1110 mult_17/U1425
*1111 a_reg\[16\]
*1112 mult_17/U2110
*1113 a_reg_reg_16_
*1114 mult_17/n2160
*1115 mult_17/U1479
*1116 mult_17/n2164
*1117 mult_17/U1424
*1118 mult_17/n2113
*1119 mult_17/U2072
*1120 mult_17/U2099
*1121 mult_17/U37
*1122 mult_17/n2165
*1123 mult_17/U2107
*1124 mult_17/n740
*1125 mult_17/n2116
*1126 mult_17/U2040
*1127 mult_17/U55
*1128 mult_17/n2163
*1129 mult_17/U2105
*1130 mult_17/n2162
*1131 mult_17/U2104
*1132 mult_17/n741
*1133 mult_17/U194
*1134 mult_17/n2159
*1135 mult_17/U2103
*1136 mult_17/n2158
*1137 mult_17/n2157
*1138 mult_17/U2100
*1139 mult_17/n742
*1140 mult_17/U198
*1141 mult_17/n2156
*1142 mult_17/n2115
*1143 mult_17/U47
*1144 mult_17/n1621
*1145 mult_17/U57
*1146 mult_17/n2155
*1147 mult_17/U2097
*1148 a_reg\[17\]
*1149 mult_17/U344
*1150 a_reg_reg_17_
*1151 mult_17/U20
*1152 mult_17/n743
*1153 mult_17/U202
*1154 mult_17/n2154
*1155 mult_17/n2153
*1156 mult_17/U2094
*1157 mult_17/n744
*1158 mult_17/U208
*1159 mult_17/n2152
*1160 mult_17/n2151
*1161 mult_17/U2091
*1162 mult_17/n745
*1163 mult_17/U213
*1164 mult_17/n2150
*1165 mult_17/n2149
*1166 mult_17/U2088
*1167 mult_17/n746
*1168 mult_17/n2148
*1169 mult_17/n2147
*1170 mult_17/U2085
*1171 mult_17/n747
*1172 mult_17/U225
*1173 mult_17/n2146
*1174 mult_17/n2145
*1175 mult_17/U2083
*1176 mult_17/n748
*1177 mult_17/U231
*1178 mult_17/n2144
*1179 mult_17/n2143
*1180 mult_17/U2080
*1181 mult_17/n749
*1182 mult_17/U237
*1183 mult_17/n2142
*1184 mult_17/n2141
*1185 mult_17/U2077
*1186 mult_17/n750
*1187 mult_17/U245
*1188 mult_17/n2140
*1189 mult_17/n2139
*1190 mult_17/U2074
*1191 mult_17/n751
*1192 mult_17/U252
*1193 mult_17/n2138
*1194 mult_17/n2137
*1195 mult_17/U2071
*1196 mult_17/n752
*1197 mult_17/U259
*1198 mult_17/n2136
*1199 mult_17/n2135
*1200 mult_17/U2068
*1201 mult_17/n753
*1202 mult_17/n2134
*1203 mult_17/n2133
*1204 mult_17/U2065
*1205 mult_17/n754
*1206 mult_17/U274
*1207 mult_17/n2132
*1208 mult_17/n2131
*1209 mult_17/U2062
*1210 mult_17/n755
*1211 mult_17/U281
*1212 mult_17/n2130
*1213 mult_17/n2129
*1214 mult_17/U2059
*1215 mult_17/n756
*1216 mult_17/U288
*1217 mult_17/n2128
*1218 mult_17/n2127
*1219 mult_17/U2056
*1220 mult_17/n757
*1221 mult_17/U295
*1222 mult_17/n2126
*1223 mult_17/n2125
*1224 mult_17/U2053
*1225 mult_17/n758
*1226 mult_17/U302
*1227 mult_17/n2124
*1228 mult_17/n2123
*1229 mult_17/U2050
*1230 mult_17/n759
*1231 mult_17/U309
*1232 mult_17/n2122
*1233 mult_17/n2121
*1234 mult_17/U2047
*1235 mult_17/n760
*1236 mult_17/U316
*1237 mult_17/n2120
*1238 mult_17/n2119
*1239 mult_17/U2044
*1240 mult_17/n761
*1241 mult_17/U322
*1242 mult_17/n2118
*1243 mult_17/n2117
*1244 mult_17/U2041
*1245 mult_17/n762
*1246 mult_17/U328
*1247 mult_17/n2114
*1248 mult_17/n2112
*1249 mult_17/U2038
*1250 mult_17/n763
*1251 mult_17/U334
*1252 mult_17/n2111
*1253 mult_17/U2036
*1254 mult_17/n764
*1255 mult_17/U339
*1256 mult_17/n2110
*1257 mult_17/U2035
*1258 mult_17/U2034
*1259 mult_17/n765
*1260 a_reg\[12\]
*1261 mult_17/U2033
*1262 mult_17/U2031
*1263 a_reg_reg_12_
*1264 mult_17/n2105
*1265 mult_17/U1713
*1266 mult_17/U1711
*1267 mult_17/U1462
*1268 a_reg\[13\]
*1269 mult_17/U2032
*1270 a_reg_reg_13_
*1271 mult_17/n2104
*1272 mult_17/U1202
*1273 mult_17/n2108
*1274 mult_17/U1712
*1275 mult_17/n2057
*1276 mult_17/U1994
*1277 mult_17/U2021
*1278 mult_17/U36
*1279 mult_17/n2109
*1280 mult_17/U2029
*1281 mult_17/n767
*1282 mult_17/n2060
*1283 mult_17/U1962
*1284 mult_17/U45
*1285 mult_17/n2107
*1286 mult_17/U2027
*1287 mult_17/n2106
*1288 mult_17/U2026
*1289 mult_17/n768
*1290 mult_17/U207
*1291 mult_17/n2103
*1292 mult_17/U2025
*1293 mult_17/n2102
*1294 mult_17/n2101
*1295 mult_17/U2022
*1296 mult_17/n769
*1297 mult_17/U212
*1298 mult_17/n2100
*1299 mult_17/n2059
*1300 mult_17/U44
*1301 mult_17/n1472
*1302 mult_17/U49
*1303 mult_17/n2099
*1304 mult_17/U2019
*1305 a_reg\[14\]
*1306 mult_17/U356
*1307 a_reg_reg_14_
*1308 mult_17/U21
*1309 mult_17/n770
*1310 mult_17/U217
*1311 mult_17/n2098
*1312 mult_17/n2097
*1313 mult_17/U2016
*1314 mult_17/n771
*1315 mult_17/U224
*1316 mult_17/n2096
*1317 mult_17/n2095
*1318 mult_17/U2013
*1319 mult_17/n772
*1320 mult_17/U230
*1321 mult_17/n2094
*1322 mult_17/n2093
*1323 mult_17/U2010
*1324 mult_17/n773
*1325 mult_17/n2092
*1326 mult_17/n2091
*1327 mult_17/U2007
*1328 mult_17/n774
*1329 mult_17/U244
*1330 mult_17/n2090
*1331 mult_17/n2089
*1332 mult_17/U2005
*1333 mult_17/n775
*1334 mult_17/U251
*1335 mult_17/n2088
*1336 mult_17/n2087
*1337 mult_17/U2002
*1338 mult_17/n776
*1339 mult_17/U258
*1340 mult_17/n2086
*1341 mult_17/n2085
*1342 mult_17/U1999
*1343 mult_17/n777
*1344 mult_17/U265
*1345 mult_17/n2084
*1346 mult_17/n2083
*1347 mult_17/U1996
*1348 mult_17/n778
*1349 mult_17/U273
*1350 mult_17/n2082
*1351 mult_17/n2081
*1352 mult_17/U1993
*1353 mult_17/n779
*1354 mult_17/U280
*1355 mult_17/n2080
*1356 mult_17/n2079
*1357 mult_17/U1990
*1358 mult_17/n780
*1359 mult_17/U287
*1360 mult_17/n2078
*1361 mult_17/n2077
*1362 mult_17/U1987
*1363 mult_17/n781
*1364 mult_17/U294
*1365 mult_17/n2076
*1366 mult_17/n2075
*1367 mult_17/U1984
*1368 mult_17/n782
*1369 mult_17/U301
*1370 mult_17/n2074
*1371 mult_17/n2073
*1372 mult_17/U1981
*1373 mult_17/n783
*1374 mult_17/U308
*1375 mult_17/n2072
*1376 mult_17/n2071
*1377 mult_17/U1978
*1378 mult_17/n784
*1379 mult_17/U315
*1380 mult_17/n2070
*1381 mult_17/n2069
*1382 mult_17/U1975
*1383 mult_17/n785
*1384 mult_17/U321
*1385 mult_17/n2068
*1386 mult_17/n2067
*1387 mult_17/U1972
*1388 mult_17/n786
*1389 mult_17/U327
*1390 mult_17/n2066
*1391 mult_17/n2065
*1392 mult_17/U1969
*1393 mult_17/n787
*1394 mult_17/U333
*1395 mult_17/n2064
*1396 mult_17/n2063
*1397 mult_17/U1966
*1398 mult_17/n788
*1399 mult_17/U338
*1400 mult_17/n2062
*1401 mult_17/n2061
*1402 mult_17/U1963
*1403 mult_17/n789
*1404 mult_17/U343
*1405 mult_17/n2058
*1406 mult_17/n2056
*1407 mult_17/U1960
*1408 mult_17/n790
*1409 mult_17/U348
*1410 mult_17/n2055
*1411 mult_17/U1958
*1412 mult_17/n791
*1413 mult_17/U352
*1414 mult_17/n2054
*1415 mult_17/U1957
*1416 mult_17/U1956
*1417 mult_17/n792
*1418 a_reg\[10\]
*1419 mult_17/U1955
*1420 mult_17/U1953
*1421 U175
*1422 a_reg_reg_10_
*1423 mult_17/n2048
*1424 mult_17/U1954
*1425 mult_17/U1710
*1426 mult_17/U1709
*1427 mult_17/n1821
*1428 mult_17/U1480
*1429 mult_17/U1477
*1430 mult_17/n1999
*1431 mult_17/U1949
*1432 mult_17/U1917
*1433 mult_17/U1456
*1434 mult_17/U1880
*1435 a_reg\[9\]
*1436 mult_17/U1213
*1437 U170
*1438 a_reg_reg_9_
*1439 mult_17/n2052
*1440 mult_17/n2002
*1441 mult_17/U35
*1442 mult_17/n2053
*1443 mult_17/U1951
*1444 mult_17/n794
*1445 mult_17/n2051
*1446 mult_17/n2050
*1447 mult_17/U1948
*1448 mult_17/n795
*1449 mult_17/U223
*1450 mult_17/n1623
*1451 mult_17/U1947
*1452 mult_17/U32
*1453 mult_17/n2047
*1454 mult_17/n2046
*1455 mult_17/n2045
*1456 mult_17/U1944
*1457 mult_17/n796
*1458 mult_17/U229
*1459 mult_17/n2004
*1460 mult_17/U1885
*1461 mult_17/U43
*1462 mult_17/n2044
*1463 mult_17/n2043
*1464 mult_17/U1942
*1465 mult_17/n797
*1466 mult_17/U235
*1467 mult_17/n2042
*1468 mult_17/n2041
*1469 mult_17/U1939
*1470 mult_17/n798
*1471 mult_17/U243
*1472 mult_17/n2040
*1473 mult_17/n2039
*1474 mult_17/U1936
*1475 mult_17/n799
*1476 mult_17/U250
*1477 mult_17/n2038
*1478 mult_17/n2037
*1479 mult_17/U1933
*1480 mult_17/n800
*1481 mult_17/n2036
*1482 mult_17/n2035
*1483 mult_17/U1930
*1484 mult_17/n801
*1485 mult_17/n2034
*1486 mult_17/n2033
*1487 mult_17/U1928
*1488 mult_17/n802
*1489 mult_17/U272
*1490 mult_17/n2032
*1491 mult_17/n2031
*1492 mult_17/U1925
*1493 mult_17/n803
*1494 mult_17/U279
*1495 mult_17/n2030
*1496 mult_17/n2029
*1497 mult_17/U1922
*1498 mult_17/n804
*1499 mult_17/U286
*1500 mult_17/n2028
*1501 mult_17/n2027
*1502 mult_17/U1919
*1503 mult_17/n805
*1504 mult_17/U293
*1505 mult_17/n2026
*1506 mult_17/n2025
*1507 mult_17/U1916
*1508 mult_17/n806
*1509 mult_17/U300
*1510 mult_17/n2024
*1511 mult_17/n2023
*1512 mult_17/U1913
*1513 mult_17/n807
*1514 mult_17/U307
*1515 mult_17/n2022
*1516 mult_17/n2021
*1517 mult_17/U1910
*1518 mult_17/n808
*1519 mult_17/U314
*1520 mult_17/n2020
*1521 mult_17/n2019
*1522 mult_17/U1907
*1523 mult_17/n809
*1524 mult_17/U320
*1525 mult_17/n2018
*1526 mult_17/n2017
*1527 mult_17/U1904
*1528 mult_17/n810
*1529 mult_17/U326
*1530 mult_17/n2016
*1531 mult_17/n2015
*1532 mult_17/U1901
*1533 mult_17/n811
*1534 mult_17/U332
*1535 mult_17/n2014
*1536 mult_17/n2013
*1537 mult_17/U1898
*1538 mult_17/n812
*1539 mult_17/U337
*1540 mult_17/n2012
*1541 mult_17/n2011
*1542 mult_17/U1895
*1543 mult_17/n813
*1544 mult_17/U342
*1545 mult_17/n2010
*1546 mult_17/n2009
*1547 mult_17/U1892
*1548 mult_17/n814
*1549 mult_17/U347
*1550 mult_17/n2008
*1551 mult_17/n2007
*1552 mult_17/U1889
*1553 mult_17/n815
*1554 mult_17/U351
*1555 mult_17/n2006
*1556 mult_17/n2005
*1557 mult_17/U1886
*1558 mult_17/n816
*1559 mult_17/U355
*1560 mult_17/n2003
*1561 mult_17/n2001
*1562 mult_17/U1883
*1563 mult_17/n817
*1564 mult_17/U359
*1565 mult_17/n2000
*1566 mult_17/U1881
*1567 mult_17/n818
*1568 mult_17/U362
*1569 mult_17/n1998
*1570 mult_17/U1879
*1571 mult_17/n819
*1572 mult_17/U365
*1573 mult_17/n1479
*1574 mult_17/U1878
*1575 mult_17/U1209
*1576 mult_17/U1201
*1577 mult_17/n1993
*1578 mult_17/U1387
*1579 mult_17/U1379
*1580 mult_17/U1265
*1581 mult_17/n1944
*1582 mult_17/U1804
*1583 mult_17/U1841
*1584 mult_17/U1873
*1585 mult_17/U1378
*1586 a_reg\[6\]
*1587 mult_17/U1877
*1588 mult_17/U1226
*1589 a_reg_reg_6_
*1590 a_reg\[7\]
*1591 mult_17/U1402
*1592 mult_17/U1399
*1593 a_reg_reg_7_
*1594 mult_17/n1996
*1595 mult_17/n1947
*1596 mult_17/U53
*1597 mult_17/n1997
*1598 mult_17/U1875
*1599 mult_17/n821
*1600 mult_17/n1995
*1601 mult_17/n1994
*1602 mult_17/U1872