*SPEF "1481-1998"
*DESIGN "FPAdder"
*DATE "Tue Dec 29 01:24:24 2015"
*VENDOR "Synopsys, Inc."
*PROGRAM "icc_shell"
*VERSION "G-2012.06-ICC-SP2"
*DESIGN_FLOW "PIN_CAP NONE"
*DIVIDER /
*DELIMITER :
*BUS_DELIMITER [ ]
*T_UNIT 1 NS
*C_UNIT 1 FF
*R_UNIT 1 OHM
*L_UNIT 1 HENRY

*NAME_MAP
*1 a[2]
*2 a[1]
*3 a[0]
*4 VDD
*5 VSS
*6 a[10]
*7 a[9]
*8 a[8]
*9 a[7]
*10 a[6]
*11 a[5]
*12 a[4]
*13 a[3]
*14 a[18]
*15 a[17]
*16 a[16]
*17 a[15]
*18 a[14]
*19 a[13]
*20 a[12]
*21 a[11]
*22 a[26]
*23 a[25]
*24 a[24]
*25 a[23]
*26 a[22]
*27 a[21]
*28 a[20]
*29 a[19]
*30 b[2]
*31 b[1]
*32 b[0]
*33 a[31]
*34 a[30]
*35 a[29]
*36 a[28]
*37 a[27]
*38 b[10]
*39 b[9]
*40 b[8]
*41 b[7]
*42 b[6]
*43 b[5]
*44 b[4]
*45 b[3]
*46 b[18]
*47 b[17]
*48 b[16]
*49 b[15]
*50 b[14]
*51 b[13]
*52 b[12]
*53 b[11]
*54 b[26]
*55 b[25]
*56 b[24]
*57 b[23]
*58 b[22]
*59 b[21]
*60 b[20]
*61 b[19]
*62 result[2]
*63 result[1]
*64 result[0]
*65 b[31]
*66 b[30]
*67 b[29]
*68 b[28]
*69 b[27]
*70 result[10]
*71 result[9]
*72 result[8]
*73 result[7]
*74 result[6]
*75 result[5]
*76 result[4]
*77 result[3]
*78 result[18]
*79 result[17]
*80 result[16]
*81 result[15]
*82 result[14]
*83 result[13]
*84 result[12]
*85 result[11]
*86 result[26]
*87 result[25]
*88 result[24]
*89 result[23]
*90 result[22]
*91 result[21]
*92 result[20]
*93 result[19]
*94 underflow
*95 overflow
*96 clk
*97 result[31]
*98 result[30]
*99 result[29]
*100 result[28]
*101 result[27]
*102 Norm/n25
*103 Norm/U1952
*104 Norm/U86
*105 Norm/U76
*106 Norm/n1917
*107 Norm/U1951
*108 outputExponent\[7\]
*109 U119
*110 U83
*111 result_reg_30_
*112 Norm/n352
*113 Norm/U1950
*114 Norm/U485
*115 Norm/n1912
*116 Norm/U1949
*117 outputExponent\[5\]
*118 U84
*119 result_reg_28_
*120 Norm/n1909
*121 Norm/U1948
*122 Norm/U1947
*123 outputExponent\[4\]
*124 result_reg_27_
*125 Norm/n1908
*126 Norm/U1946
*127 Norm/U1945
*128 Norm/n1907
*129 Norm/U1743
*130 Norm/U589
*131 Norm/n594
*132 Norm/U761
*133 outputExponent\[3\]
*134 U118
*135 U79
*136 result_reg_26_
*137 Norm/n1906
*138 Norm/U1944
*139 Norm/U960
*140 Norm/n1904
*141 Norm/U1943
*142 Norm/n1905
*143 Norm/U1744
*144 outputExponent\[2\]
*145 result_reg_25_
*146 Norm/n1903
*147 Norm/U1942
*148 Norm/U760
*149 Norm/n1902
*150 Norm/U1731
*151 Norm/n1901
*152 Norm/U1941
*153 outputExponent\[1\]
*154 U80
*155 result_reg_24_
*156 Norm/n1900
*157 Norm/U1940
*158 Norm/U759
*159 Norm/n1899
*160 Norm/U1733
*161 outputExponent\[0\]
*162 result_reg_23_
*163 Norm/n1895
*164 Norm/U1648
*165 Norm/U662
*166 Norm/U660
*167 Norm/U94
*168 Norm/n462
*169 Norm/U1576
*170 Norm/U1544
*171 Norm/U1845
*172 Norm/U1833
*173 Norm/U1822
*174 Norm/U1809
*175 Norm/U1797
*176 Norm/U1757
*177 Norm/U1643
*178 Norm/U1611
*179 Norm/U1917
*180 Norm/U1910
*181 Norm/U1902
*182 Norm/U1894
*183 Norm/U1886
*184 Norm/U1877
*185 Norm/U1869
*186 Norm/U1858
*187 Norm/U352
*188 Norm/n94
*189 Norm/U71
*190 Norm/U1872
*191 Norm/U1861
*192 Norm/U1848
*193 Norm/U1836
*194 Norm/U1824
*195 Norm/U1811
*196 Norm/U1800
*197 Norm/n1893
*198 Norm/U1935
*199 Norm/U1929
*200 Norm/U1927
*201 Norm/U625
*202 Norm/n64
*203 Norm/U1651
*204 Norm/U1220
*205 Norm/U13
*206 Norm/n1891
*207 Norm/U1932
*208 Norm/U1930
*209 Norm/U1759
*210 Norm/U1008
*211 Norm/n1890
*212 Norm/U1760
*213 Norm/n1885
*214 Norm/U1936
*215 Norm/n1889
*216 Norm/U1647
*217 Norm/U1646
*218 Norm/n1887
*219 Norm/U1934
*220 Norm/n1886
*221 Norm/U643
*222 Norm/U613
*223 Norm/U565
*224 Norm/U454
*225 Norm/U508
*226 Norm/U1898
*227 Norm/U1890
*228 Norm/U1881
*229 Norm/U1873
*230 Norm/U1849
*231 Norm/U1812
*232 Norm/U645
*233 Norm/U1931
*234 Norm/U1928
*235 Norm/U1925
*236 Norm/U1921
*237 Norm/U1914
*238 Norm/U1906
*239 normResult\[22\]
*240 result_reg_22_
*241 Norm/n1892
*242 Norm/U925
*243 Norm/U1913
*244 Norm/U1905
*245 Norm/U1880
*246 Norm/n791
*247 Norm/U1897
*248 Norm/U1889
*249 Norm/U1002
*250 Norm/U1933
*251 Norm/U1924
*252 Norm/U1920
*253 Norm/n1884
*254 Norm/U1926
*255 Norm/U1923
*256 Norm/n1882
*257 Norm/U1614
*258 Norm/U1613
*259 Norm/n1880
*260 Norm/n1881
*261 normResult\[21\]
*262 result_reg_21_
*263 Norm/n1879
*264 Norm/U1922
*265 Norm/U1919
*266 Norm/n1878
*267 Norm/U1645
*268 Norm/n1876
*269 Norm/n1877
*270 normResult\[20\]
*271 result_reg_20_
*272 Norm/n1875
*273 Norm/U1915
*274 Norm/U1912
*275 Norm/n1873
*276 Norm/n1874
*277 normResult\[19\]
*278 result_reg_19_
*279 Norm/n1872
*280 Norm/U1907
*281 Norm/U1904
*282 Norm/n1864
*283 Norm/n1865
*284 normResult\[18\]
*285 result_reg_18_
*286 Norm/n1863
*287 Norm/U1899
*288 Norm/U1896
*289 Norm/n1862
*290 Norm/U1911
*291 Norm/n366
*292 Norm/U1416
*293 Norm/U1392
*294 Norm/U1365
*295 Norm/U1753
*296 Norm/U1639
*297 Norm/U1607
*298 Norm/U1572
*299 Norm/U1540
*300 Norm/U1504
*301 Norm/U1471
*302 Norm/U1442
*303 Norm/U1865
*304 Norm/U1854
*305 Norm/U1841
*306 Norm/U1829
*307 Norm/U1818
*308 Norm/U1805
*309 Norm/U1793
*310 Norm/U1774
*311 Norm/U172
*312 Norm/n1869
*313 Norm/U1918
*314 Norm/n1871
*315 Norm/U1758
*316 Norm/n1860
*317 Norm/n1861
*318 normResult\[17\]
*319 result_reg_17_
*320 Norm/n1859
*321 Norm/U1891
*322 Norm/U1888
*323 Norm/n1858
*324 Norm/U1903
*325 Norm/n1857
*326 Norm/n1852
*327 Norm/U1916
*328 Norm/n1855
*329 Norm/U1745
*330 Norm/n1853
*331 Norm/U1908
*332 Norm/n1851
*333 Norm/U1900
*334 Norm/U1893
*335 Norm/U1756
*336 Norm/U1755
*337 Norm/n315
*338 Norm/U1415
*339 Norm/U1391
*340 Norm/U894
*341 Norm/U1752
*342 Norm/U1638
*343 Norm/U1606
*344 Norm/U1571
*345 Norm/U1539
*346 Norm/U1503
*347 Norm/U1470
*348 Norm/U1441
*349 Norm/U1864
*350 Norm/U1853
*351 Norm/U1840
*352 Norm/U1828
*353 Norm/U1817
*354 Norm/U1804
*355 Norm/U1792
*356 Norm/U1773
*357 Norm/U161
*358 Norm/n1850
*359 Norm/U1909
*360 Norm/U1892
*361 Norm/U1885
*362 Norm/U1884
*363 Norm/n1848
*364 Norm/U1630
*365 Norm/U1610
*366 Norm/U1575
*367 Norm/U1574
*368 Norm/n1846
*369 Norm/n1847
*370 normResult\[16\]
*371 result_reg_16_
*372 Norm/n1845
*373 Norm/U1882
*374 Norm/U1879
*375 Norm/n1844
*376 Norm/U1895
*377 Norm/n1843
*378 Norm/n1841
*379 Norm/n1842
*380 Norm/n1840
*381 Norm/U1901
*382 Norm/U1883
*383 Norm/U1876
*384 Norm/U18
*385 Norm/n1839
*386 Norm/U1642
*387 Norm/U1609
*388 Norm/n1838
*389 Norm/U1641
*390 Norm/n1836
*391 Norm/n1837
*392 normResult\[15\]
*393 result_reg_15_
*394 Norm/n1835
*395 Norm/U1874
*396 Norm/U1871
*397 Norm/n1834
*398 Norm/U1887
*399 Norm/n1833
*400 Norm/n1831
*401 Norm/n1832
*402 Norm/n1830
*403 Norm/U1875
*404 Norm/U1868
*405 Norm/U1867
*406 Norm/n1828
*407 Norm/n1829
*408 normResult\[14\]
*409 result_reg_14_
*410 Norm/n1827
*411 Norm/U1862
*412 Norm/U1860
*413 Norm/n1826
*414 Norm/U1878
*415 Norm/n1825
*416 Norm/n1823
*417 Norm/n1824
*418 Norm/n1822
*419 Norm/U1863
*420 Norm/U1857
*421 Norm/U1856
*422 Norm/n1820
*423 Norm/n1821
*424 normResult\[13\]
*425 result_reg_13_
*426 Norm/n1819
*427 Norm/U1850
*428 Norm/U1847
*429 Norm/n1818
*430 Norm/U1870
*431 Norm/n1817
*432 Norm/n1815
*433 Norm/n1816
*434 Norm/n1814
*435 Norm/U1851
*436 Norm/U1844
*437 Norm/U1843
*438 Norm/n1813
*439 Norm/U1754
*440 Norm/n1811
*441 Norm/U1866
*442 Norm/n397
*443 Norm/U67
*444 Norm/U1689
*445 Norm/U1687
*446 Norm/U1527
*447 Norm/U1474
*448 Norm/U1432
*449 Norm/U571
*450 Norm/U27
*451 Norm/U234
*452 Norm/n1808
*453 Norm/U1640
*454 Norm/n1806
*455 Norm/n1807
*456 normResult\[12\]
*457 result_reg_12_
*458 Norm/n1805
*459 Norm/U1837
*460 Norm/U1835
*461 Norm/n1804
*462 Norm/U1859
*463 Norm/n1803
*464 Norm/n1801
*465 Norm/n1802
*466 Norm/n1800
*467 Norm/U1838
*468 Norm/U1832
*469 Norm/U1831
*470 Norm/n1797
*471 Norm/n1798
*472 Norm/U453
*473 normResult\[11\]
*474 result_reg_11_
*475 Norm/n1796
*476 Norm/U1825
*477 Norm/U516
*478 Norm/n1795
*479 Norm/U1846
*480 Norm/n1794
*481 Norm/n1792
*482 Norm/n1793
*483 Norm/n1791
*484 Norm/U1826
*485 Norm/U1821
*486 Norm/U1820
*487 Norm/n1799
*488 Norm/U1855
*489 Norm/n1790
*490 Norm/U1842
*491 Norm/n1789
*492 Norm/n1784
*493 Norm/n1787
*494 Norm/U1746
*495 Norm/n1785
*496 Norm/U1852
*497 Norm/n1783
*498 Norm/U1839
*499 Norm/U1751
*500 Norm/n679
*501 Norm/U642
*502 Norm/U612
*503 Norm/U564
*504 Norm/U1784
*505 Norm/U510
*506 Norm/n641
*507 Norm/U1697
*508 Norm/U1695
*509 Norm/U1629
*510 Norm/U1582
*511 Norm/U1766
*512 Norm/U438
*513 Norm/U436
*514 Norm/U112
*515 Norm/U103
*516 Norm/U136
*517 Norm/U159
*518 Norm/U434
*519 Norm/n1781
*520 Norm/U1827
*521 Norm/U1816
*522 Norm/n1779
*523 Norm/U1631
*524 Norm/U1570
*525 Norm/n1776
*526 Norm/U1813
*527 Norm/U517
*528 Norm/n1777
*529 Norm/U455
*530 Norm/n1775
*531 Norm/U1834
*532 Norm/n1774
*533 Norm/n1772
*534 Norm/n1773
*535 Norm/n1771
*536 Norm/U1814
*537 Norm/U1808
*538 Norm/U1807
*539 Norm/n1770
*540 Norm/U1830
*541 Norm/n1769
*542 Norm/n1767
*543 Norm/n1768
*544 Norm/n631
*545 Norm/U846
*546 Norm/n1766
*547 Norm/U1815
*548 Norm/U12
*549 Norm/n1765
*550 Norm/U1605
*551 Norm/n1764
*552 Norm/U1637
*553 Norm/n1762
*554 Norm/n1778
*555 Norm/n1763
*556 normResult\[9\]
*557 result_reg_9_
*558 Norm/n1761
*559 Norm/U1801
*560 Norm/U1799
*561 Norm/n1760
*562 Norm/U1823
*563 Norm/n1759
*564 Norm/n1757
*565 Norm/n1758
*566 Norm/n1756
*567 Norm/U1802
*568 Norm/U1796
*569 Norm/U1795
*570 Norm/n1755
*571 Norm/U1819
*572 Norm/n1754
*573 Norm/n1752
*574 Norm/n1753
*575 Norm/n1751
*576 Norm/U1803
*577 Norm/U1791
*578 Norm/n1748
*579 Norm/U1785
*580 Norm/U1783
*581 Norm/U1781
*582 Norm/n1749
*583 Norm/U614
*584 Norm/n1747
*585 Norm/U1810
*586 Norm/n1746
*587 Norm/n1744
*588 Norm/n1745
*589 Norm/n1743
*590 Norm/U1786
*591 Norm/U1778
*592 Norm/U1776
*593 Norm/n1742
*594 Norm/U1806
*595 Norm/n1741
*596 Norm/n1739
*597 Norm/n1740
*598 Norm/n1738
*599 Norm/U1787
*600 Norm/U1771
*601 Norm/n1735
*602 Norm/U1727
*603 Norm/U1726
*604 Norm/n1736
*605 Norm/U644
*606 Norm/n1733
*607 Norm/n1731
*608 Norm/n1732
*609 Norm/n1730
*610 Norm/U1721
*611 Norm/U1720
*612 Norm/n1729
*613 Norm/U1794
*614 Norm/n1728
*615 Norm/n1726
*616 Norm/n1727
*617 Norm/n1725
*618 Norm/U1715
*619 Norm/U1714
*620 Norm/n1724
*621 Norm/U1750
*622 Norm/n1722
*623 Norm/U1790
*624 Norm/n246
*625 Norm/U1212
*626 Norm/U294
*627 Norm/U1232
*628 Norm/U1257
*629 Norm/U1305
*630 Norm/U1280
*631 Norm/U1538
*632 Norm/U1502
*633 Norm/U1469
*634 Norm/U1440
*635 Norm/U1414
*636 Norm/U1390
*637 Norm/U1363
*638 Norm/U1332
*639 Norm/U1677
*640 Norm/U73
*641 Norm/n1719
*642 Norm/U1636
*643 Norm/n1750
*644 Norm/n1717
*645 Norm/n1737
*646 Norm/n1718
*647 normResult\[6\]
*648 result_reg_6_
*649 Norm/n1716
*650 Norm/U1694
*651 Norm/U1693
*652 Norm/n1714
*653 Norm/n1712
*654 Norm/n1713
*655 Norm/n1711
*656 Norm/U1686
*657 Norm/U1685
*658 Norm/n1710
*659 Norm/U1775
*660 Norm/n1709
*661 Norm/n1707
*662 Norm/n1708
*663 Norm/n1706
*664 Norm/U1678
*665 Norm/n1702
*666 Norm/U1667
*667 Norm/U1666
*668 Norm/n1703
*669 Norm/U566
*670 Norm/n1715
*671 Norm/U1780
*672 Norm/n1734
*673 Norm/U1798
*674 Norm/n1701
*675 Norm/U1725
*676 Norm/n1700
*677 Norm/n1698
*678 Norm/n1699
*679 Norm/U1779
*680 Norm/U1724
*681 Norm/n1697
*682 Norm/U1663
*683 Norm/U1662
*684 Norm/n1696
*685 Norm/U1719
*686 Norm/n1695
*687 Norm/n1693
*688 Norm/n1694
*689 Norm/U1718
*690 Norm/n1692
*691 Norm/U1679
*692 Norm/U1659
*693 Norm/U1658
*694 Norm/n1705
*695 Norm/U1770
*696 Norm/n1691
*697 Norm/U1713
*698 Norm/n1690
*699 Norm/U1789
*700 Norm/n1685
*701 Norm/U1788
*702 Norm/n1688
*703 Norm/U1749
*704 Norm/U1747
*705 Norm/n1686
*706 Norm/U1769
*707 Norm/U1712
*708 Norm/U1709
*709 Norm/n1684
*710 Norm/U1768
*711 Norm/U1748
*712 Norm/U1670
*713 Norm/U1669
*714 Norm/n198
*715 Norm/U1237
*716 Norm/U1221
*717 Norm/U1438
*718 Norm/U1412
*719 Norm/U1388
*720 Norm/U1361
*721 Norm/U1330
*722 Norm/U1303
*723 Norm/U1278
*724 Norm/U1255
*725 Norm/U1635
*726 Norm/U1603
*727 Norm/U1568
*728 Norm/U1536
*729 Norm/U1500
*730 Norm/U1467
*731 Norm/U68
*732 Norm/n1682
*733 Norm/U1706
*734 Norm/U1671
*735 Norm/U1650
*736 Norm/n1680
*737 Norm/U1632
*738 Norm/U1602
*739 Norm/U1567
*740 Norm/U1566
*741 Norm/n1675
*742 Norm/n1704
*743 Norm/U1765
*744 Norm/n1676
*745 Norm/U1699
*746 Norm/U1698
*747 normResult\[4\]
*748 result_reg_4_
*749 Norm/n442
*750 Norm/U1764
*751 Norm/U611
*752 Norm/n1673
*753 Norm/U1701
*754 Norm/U1700
*755 Norm/n1671
*756 Norm/U1692
*757 Norm/n1670
*758 Norm/n1667
*759 Norm/n1669
*760 Norm/U1691
*761 Norm/U1690
*762 Norm/n1666
*763 Norm/U1777
*764 Norm/n1665
*765 Norm/U1723
*766 Norm/U1722
*767 Norm/n1664
*768 Norm/U1703
*769 Norm/U1702
*770 Norm/n1663
*771 Norm/U1530
*772 Norm/U1529
*773 Norm/n1662
*774 Norm/U1684
*775 Norm/n1661
*776 Norm/n1658
*777 Norm/n1660
*778 Norm/U1683
*779 Norm/U1682
*780 Norm/n1657
*781 Norm/U1772
*782 Norm/n1656
*783 Norm/U1717
*784 Norm/U1716
*785 Norm/n1655
*786 Norm/U1705
*787 Norm/U1704
*788 Norm/n1654
*789 Norm/U1356
*790 Norm/U1355
*791 Norm/n1653
*792 Norm/U1676
*793 Norm/n1652
*794 Norm/n1649
*795 Norm/n1651
*796 Norm/U1675
*797 Norm/U1674
*798 Norm/n1648
*799 Norm/U1634
*800 Norm/U1601
*801 Norm/n1647
*802 Norm/U1767
*803 Norm/n1646
*804 Norm/U1711
*805 Norm/U1710
*806 Norm/n1645
*807 Norm/U1708
*808 Norm/U1707
*809 Norm/n1644
*810 Norm/U1217
*811 Norm/U1216
*812 Norm/n1678
*813 Norm/U178
*814 Norm/n1896
*815 Norm/U1761
*816 Norm/n1642
*817 Norm/n1638
*818 Norm/n1639
*819 Norm/n1643
*820 Norm/U1728
*821 Norm/U495
*822 normResult\[3\]
*823 result_reg_3_
*824 Norm/n1637
*825 Norm/n1636
*826 Norm/U1763
*827 Norm/n1635
*828 Norm/U1668
*829 Norm/n474
*830 Norm/U1762
*831 Norm/U657
*832 Norm/n1898
*833 Norm/n63
*834 Norm/U125
*835 Norm/n1631
*836 Norm/n1866
*837 Norm/U1644
*838 Norm/n1630
*839 Norm/U1612
*840 Norm/n1629
*841 Norm/n1627
*842 Norm/n1628
*843 Norm/n1626
*844 Norm/U1597
*845 Norm/U1542
*846 Norm/U447
*847 Norm/n1625
*848 Norm/U1608
*849 Norm/n1624
*850 Norm/n1622
*851 Norm/n1623
*852 Norm/n1621
*853 Norm/U1598
*854 Norm/n1620
*855 Norm/U1604
*856 Norm/n1619
*857 Norm/n1617
*858 Norm/n1618
*859 Norm/n1616
*860 Norm/U1633
*861 Norm/n1615
*862 Norm/U1599
*863 Norm/U1535
*864 Norm/U1534
*865 Norm/n1612
*866 Norm/U1742
*867 Norm/U471
*868 Norm/U79
*869 Norm/n1610
*870 Norm/U1736
*871 Norm/U1735
*872 Norm/U797
*873 Norm/U713
*874 Norm/n1609
*875 Norm/U1741
*876 Norm/U1740
*877 Norm/n1910
*878 Norm/U765
*879 Norm/U386
*880 Norm/n1606
*881 Norm/n1607
*882 Norm/n1605
*883 Norm/U1739
*884 Norm/U1738
*885 Norm/U486
*886 Norm/n1913
*887 Norm/n1604
*888 Norm/U590
*889 Norm/n709
*890 Norm/n45
*891 Norm/U816
*892 Norm/U803
*893 Norm/U157
*894 Norm/U99
*895 Norm/U84
*896 Norm/n1602
*897 Norm/U1737
*898 Norm/U77
*899 Norm/n539
*900 Norm/U736
*901 Norm/U630
*902 Norm/U214
*903 Norm/n1603
*904 Norm/U1734
*905 Norm/n35
*906 Norm/U1732
*907 Norm/U821
*908 Norm/U767
*909 Norm/U101
*910 Norm/U90
*911 Norm/n1597
*912 Norm/U1620
*913 Norm/U1068
*914 Norm/U116
*915 Norm/n1598
*916 Norm/U533
*917 Norm/U388
*918 Norm/U387
*919 Norm/n1595
*920 Norm/U1730
*921 Norm/n43
*922 Norm/n559
*923 Norm/U766
*924 Norm/U498
*925 Norm/U83
*926 Norm/U768
*927 Norm/n1593
*928 Norm/U1729
*929 Norm/n1596
*930 Norm/U889
*931 Norm/U91
*932 Norm/n478
*933 Norm/U440
*934 Norm/n642
*935 Norm/U1619
*936 Norm/U1696
*937 Norm/U439
*938 Norm/n1591
*939 Norm/U1665
*940 Norm/U1005
*941 Norm/n1590
*942 Norm/n1586
*943 Norm/n1588
*944 Norm/n1587
*945 Norm/U1543
*946 Norm/U301
*947 Norm/n1585
*948 Norm/n1583
*949 Norm/U1664
*950 Norm/n1581
*951 Norm/U1661
*952 Norm/U1009
*953 Norm/n1580
*954 Norm/n1576
*955 Norm/n1579
*956 Norm/U1353
*957 Norm/U1325
*958 Norm/U1286
*959 Norm/U1010
*960 Norm/n1578
*961 Norm/n1577
*962 Norm/U1364
*963 Norm/n1575
*964 Norm/U1681
*965 Norm/n1573
*966 Norm/U1660
*967 Norm/n1571
*968 Norm/U1656
*969 Norm/U1655
*970 Norm/n1570
*971 Norm/n1566
*972 Norm/n1568
*973 Norm/n1567
*974 Norm/U20
*975 Norm/n1565
*976 Norm/U1673
*977 Norm/n1564
*978 Norm/U1177
*979 Norm/U221
*980 Norm/n1563
*981 Norm/U1654
*982 Norm/n1560
*983 Norm/n1559
*984 Norm/n379
*985 Norm/U1351
*986 Norm/U1506
*987 Norm/U1473
*988 Norm/U1444
*989 Norm/U1418
*990 Norm/U1382
*991 Norm/U227
*992 Norm/n1556
*993 Norm/U1680
*994 Norm/U1657
*995 Norm/n1555
*996 Norm/U1306
*997 Norm/U1282
*998 Norm/U975
*999 Norm/U235
*1000 Norm/n1554
*1001 Norm/n268
*1002 Norm/U1239
*1003 Norm/U105
*1004 Norm/n1552
*1005 Norm/U1688
*1006 Norm/n1551
*1007 Norm/U1446
*1008 Norm/U140
*1009 Norm/n1550
*1010 Norm/n23
*1011 Norm/U1100
*1012 Norm/U1087
*1013 Norm/U1235
*1014 Norm/U1219
*1015 Norm/U1194
*1016 Norm/U1175
*1017 Norm/U1158
*1018 Norm/U1138
*1019 Norm/U1118
*1020 Norm/U1086
*1021 Norm/U1436
*1022 Norm/U1410
*1023 Norm/U1386
*1024 Norm/U1359
*1025 Norm/U1328
*1026 Norm/U1301
*1027 Norm/U1276
*1028 Norm/U1253
*1029 Norm/U1498
*1030 Norm/U1465
*1031 Norm/U719
*1032 Norm/U1
*1033 Norm/n1549
*1034 Norm/n1548
*1035 normResult\[2\]
*1036 result_reg_2_
*1037 Norm/n1547
*1038 Norm/n1546
*1039 Norm/n96
*1040 Norm/U1254
*1041 Norm/U1236
*1042 Norm/U812
*1043 Norm/U1466
*1044 Norm/U1437
*1045 Norm/U1411
*1046 Norm/U1387
*1047 Norm/U1360
*1048 Norm/U1329
*1049 Norm/U1302
*1050 Norm/U1277
*1051 Norm/U1499
*1052 Norm/n1545
*1053 Norm/n1544
*1054 Norm/n1542
*1055 Norm/n1541
*1056 Norm/n1539
*1057 Norm/n1538
*1058 Norm/n1536
*1059 Norm/n1535
*1060 Norm/n1533
*1061 Norm/n1532
*1062 Norm/U1653
*1063 Norm/n1531
*1064 Norm/U1672
*1065 Norm/n1530
*1066 Norm/n1529
*1067 Norm/U1652
*1068 Norm/n438
*1069 Norm/U351
*1070 Norm/n1919
*1071 Norm/U1015
*1072 Norm/n1525
*1073 Norm/U1600
*1074 Norm/n1918
*1075 Norm/U1014
*1076 normResult\[1\]
*1077 result_reg_1_
*1078 Norm/n51
*1079 Norm/U109
*1080 Norm/U11
*1081 Norm/n645
*1082 Norm/U863
*1083 Norm/n1519
*1084 Norm/n799
*1085 Norm/U1023
*1086 Norm/U639
*1087 Norm/n585
*1088 Norm/U1525
*1089 Norm/U357
*1090 Norm/n1516
*1091 Norm/n399
*1092 Norm/n1513
*1093 Norm/n666
*1094 Norm/n1511
*1095 Norm/U1578
*1096 Norm/U1577
*1097 Norm/n1510
*1098 Norm/n1508
*1099 Norm/n1509
*1100 Norm/n1507
*1101 Norm/U1562
*1102 Norm/U1507
*1103 Norm/n1506
*1104 Norm/U1573
*1105 Norm/n1505
*1106 Norm/n1503
*1107 Norm/n1504
*1108 Norm/n1502
*1109 Norm/U1563
*1110 Norm/n1501
*1111 Norm/U1569
*1112 Norm/n1500
*1113 Norm/n1498
*1114 Norm/n1499
*1115 Norm/n1497
*1116 Norm/U1564
*1117 Norm/n1496
*1118 Norm/U1565
*1119 Norm/n46
*1120 Norm/n1495
*1121 Norm/U1628
*1122 Norm/U1627
*1123 Norm/n1614
*1124 Norm/U795
*1125 Norm/U190
*1126 Norm/U154
*1127 Norm/U75
*1128 Norm/n1493
*1129 Norm/U617
*1130 Norm/n785
*1131 Norm/U988
*1132 Norm/n68
*1133 Norm/U171
*1134 Norm/U131
*1135 Norm/U70
*1136 Norm/U428
*1137 Norm/U1044
*1138 Norm/n41
*1139 Norm/U1626
*1140 Norm/U98
*1141 Norm/U631
*1142 Norm/n1611
*1143 Norm/U591
*1144 Norm/n39
*1145 Norm/U1625
*1146 Norm/U95
*1147 Norm/n1608
*1148 Norm/n1488
*1149 Norm/U1624
*1150 Norm/U14
*1151 Norm/n1489
*1152 Norm/U1593
*1153 Norm/U634
*1154 Norm/U80
*1155 Norm/n710
*1156 Norm/U823
*1157 Norm/n1490
*1158 Norm/U104
*1159 Norm/n1485
*1160 Norm/U1623
*1161 Norm/U1622
*1162 Norm/n1486
*1163 Norm/U1052
*1164 Norm/U162
*1165 Norm/n90
*1166 Norm/U156
*1167 Norm/n1601
*1168 Norm/n1484
*1169 Norm/U1589
*1170 Norm/U1046
*1171 Norm/U100
*1172 Norm/n1481
*1173 Norm/U737
*1174 Norm/n1479
*1175 Norm/U107
*1176 Norm/n1480
*1177 Norm/U1583
*1178 Norm/n1478
*1179 Norm/U1617
*1180 Norm/n1482
*1181 Norm/U1616
*1182 Norm/n1477
*1183 Norm/U1581
*1184 Norm/n36
*1185 Norm/U92
*1186 Norm/n312
*1187 Norm/n1474
*1188 Norm/U1561
*1189 Norm/n1473
*1190 Norm/n1471
*1191 Norm/n1472
*1192 Norm/n1470
*1193 Norm/U1528
*1194 Norm/n1469
*1195 Norm/U1541
*1196 Norm/n1468
*1197 Norm/n1466
*1198 Norm/n1467
*1199 Norm/n1465
*1200 Norm/U1531
*1201 Norm/n1464
*1202 Norm/U1537
*1203 Norm/n1463
*1204 Norm/n1461
*1205 Norm/n1462
*1206 Norm/n1460
*1207 Norm/U1532
*1208 Norm/n1459
*1209 Norm/U1533
*1210 tempResult\[2\]
*1211 Adder/U95
*1212 Norm/n1458
*1213 Norm/U1595
*1214 Norm/U618
*1215 Norm/n501
*1216 Norm/U688
*1217 Norm/U142
*1218 Norm/n1457
*1219 Norm/U1585
*1220 Norm/n489
*1221 Norm/U674
*1222 Norm/U649
*1223 Norm/n149
*1224 Norm/U1594
*1225 Norm/U1587
*1226 Norm/U568
*1227 Norm/U240
*1228 Norm/n658
*1229 Norm/n1456
*1230 Norm/U380
*1231 Norm/U119
*1232 Norm/n671
*1233 Norm/U1592
*1234 Norm/U898
*1235 Norm/U69
*1236 Norm/n1451
*1237 Norm/n58
*1238 Norm/U120
*1239 Norm/U1047
*1240 Norm/n1453
*1241 Norm/U522
*1242 Norm/n1487
*1243 Norm/U1591
*1244 Norm/U706
*1245 Norm/n674
*1246 Norm/U1590
*1247 Norm/U897
*1248 Norm/n409
*1249 Norm/n1449
*1250 Norm/U1557
*1251 Norm/n1450
*1252 Norm/U81
*1253 Norm/n1446
*1254 Norm/U1588
*1255 Norm/n1447
*1256 Norm/U1584
*1257 Norm/n1445
*1258 Norm/U1555
*1259 Norm/U593
*1260 Norm/n504
*1261 Norm/U1586
*1262 Norm/U694
*1263 Norm/n500
*1264 Norm/U687
*1265 Norm/n1454
*1266 Norm/U37
*1267 Norm/n1444
*1268 Norm/U1580
*1269 Norm/n1443
*1270 Norm/U745
*1271 Norm/U707
*1272 Norm/U93
*1273 Norm/n1442
*1274 Norm/n1440
*1275 Norm/U832
*1276 Norm/n1441
*1277 Norm/U1550
*1278 Norm/n1439
*1279 Norm/U82
*1280 Norm/n65
*1281 Norm/U695
*1282 Norm/U127
*1283 Norm/n636
*1284 Norm/U850
*1285 Norm/n1436
*1286 Norm/U1579
*1287 Norm/n1512
*1288 Norm/U1037
*1289 Norm/U659
*1290 Norm/n1435
*1291 Norm/n1433
*1292 Norm/n1434
*1293 Norm/n1432
*1294 Norm/U1445
*1295 Norm/n1431
*1296 Norm/U1505
*1297 Norm/n1430
*1298 Norm/n1428
*1299 Norm/n1429
*1300 Norm/n1427
*1301 Norm/U1495
*1302 Norm/n1426
*1303 Norm/U1501
*1304 Norm/n1425
*1305 Norm/n1423
*1306 Norm/n1424
*1307 Norm/n1422
*1308 Norm/U1496
*1309 Norm/n1421
*1310 Norm/U1497
*1311 tempResult\[3\]
*1312 Adder/U96
*1313 Norm/n1420
*1314 Norm/U1031
*1315 Norm/U672
*1316 Norm/U184
*1317 Norm/n100
*1318 Norm/U1560
*1319 Norm/U166
*1320 Norm/n1455
*1321 Norm/n1416
*1322 Norm/U1558
*1323 Norm/U878
*1324 Norm/n1414
*1325 Norm/U1551
*1326 Norm/n1415
*1327 Norm/U1521
*1328 Norm/U961
*1329 Norm/U830
*1330 Norm/n492
*1331 Norm/U811
*1332 Norm/U678
*1333 Norm/n1413
*1334 Norm/U1556
*1335 Norm/n1411
*1336 Norm/U1552
*1337 Norm/n1412
*1338 Norm/U1519
*1339 Norm/n737
*1340 Norm/n1409
*1341 Norm/U1554
*1342 Norm/n1410
*1343 Norm/U1553
*1344 Norm/n549
*1345 Norm/U750
*1346 Norm/n637
*1347 Norm/U671
*1348 Norm/U173
*1349 Norm/n521
*1350 Norm/U715
*1351 Norm/n617
*1352 Norm/U676
*1353 Norm/n1405
*1354 Norm/U1549
*1355 Norm/U160
*1356 Norm/U133
*1357 Norm/n1403
*1358 Norm/U1546
*1359 Norm/U1545
*1360 Norm/U449
*1361 Norm/n1404
*1362 Norm/U1526
*1363 Norm/U1003
*1364 Norm/U696
*1365 Norm/n368
*1366 Norm/U217
*1367 Norm/n1402
*1368 Norm/U1547
*1369 Norm/n1406
*1370 Norm/n1400
*1371 Norm/U675
*1372 Norm/n116
*1373 Norm/n1395
*1374 Norm/n1396
*1375 Norm/n682
*1376 Norm/U308
*1377 Norm/U31
*1378 Norm/n1392
*1379 Norm/U1472
*1380 Norm/n1391
*1381 Norm/n1389
*1382 Norm/n1390
*1383 Norm/n1388
*1384 Norm/U1462
*1385 Norm/n1387
*1386 Norm/U1468
*1387 Norm/n1386
*1388 Norm/n1384
*1389 Norm/n1385
*1390 Norm/n1383
*1391 Norm/U1463
*1392 Norm/n1382
*1393 Norm/U1464
*1394 tempResult\[4\]
*1395 Adder/U97
*1396 Norm/n1381
*1397 Norm/n1582
*1398 Norm/U1494
*1399 Norm/U1508
*1400 Norm/n1380
*1401 Norm/n1377
*1402 Norm/n1375
*1403 Norm/U1510
*1404 Norm/U772
*1405 Norm/U38
*1406 Norm/n1376
*1407 Norm/U1480
*1408 Norm/U1066
*1409 Norm/U344
*1410 Norm/U123
*1411 Norm/n1373
*1412 Norm/U1524
*1413 Norm/U1523
*1414 Norm/n724
*1415 Norm/U446
*1416 Norm/n1374
*1417 Norm/U1522
*1418 Norm/U947
*1419 Norm/n1408
*1420 Norm/U1056
*1421 Norm/n76
*1422 Norm/U139
*1423 Norm/n1371
*1424 Norm/U229
*1425 Norm/n1369
*1426 Norm/U1520
*1427 Norm/U135
*1428 Norm/U134
*1429 Norm/n1366
*1430 Norm/U773
*1431 Norm/n567
*1432 Norm/U995
*1433 Norm/U953
*1434 Norm/U775
*1435 Norm/U774
*1436 Norm/U325
*1437 Norm/n1367
*1438 Norm/U1518
*1439 Norm/n493
*1440 Norm/U679
*1441 Norm/n1364
*1442 Norm/U1514
*1443 Norm/U1513
*1444 Norm/U445
*1445 Norm/n87
*1446 Norm/U1517
*1447 Norm/U153
*1448 Norm/n1419
*1449 Norm/U48
*1450 Norm/n1361
*1451 Norm/U1516
*1452 Norm/U858
*1453 Norm/n1362
*1454 Norm/U1492
*1455 Norm/U1058
*1456 Norm/U122
*1457 Norm/n372
*1458 Norm/U519
*1459 Norm/n1363
*1460 Norm/U796
*1461 Norm/n1418
*1462 Norm/U1515
*1463 Norm/U677
*1464 Norm/n657
*1465 Norm/U854
*1466 Norm/n1359
*1467 Norm/U1490
*1468 Norm/U523
*1469 Norm/n1360
*1470 Norm/n115
*1471 Norm/U183
*1472 Norm/n1357
*1473 Norm/U1512
*1474 Norm/U1511
*1475 Norm/n1401
*1476 Norm/n1358
*1477 Norm/U683
*1478 Norm/n1355
*1479 Norm/n422
*1480 Norm/U580
*1481 Norm/U650
*1482 Norm/n1349
*1483 Norm/n1350
*1484 Norm/U1447
*1485 Norm/U868
*1486 Norm/U437
*1487 Norm/U175
*1488 Norm/n1351
*1489 Norm/U1493
*1490 Norm/n1352
*1491 Norm/U576
*1492 Norm/n314
*1493 Norm/U1263
*1494 Norm/U855
*1495 Norm/U8
*1496 Norm/U144
*1497 Norm/n77
*1498 Norm/n1348
*1499 Norm/U1443
*1500 Norm/n1347
*1501 Norm/n1345
*1502 Norm/n1346
*1503 Norm/n1344
*1504 Norm/U1433
*1505 Norm/n1343
*1506 Norm/U1439
*1507 Norm/n1342
*1508 Norm/n1340
*1509 Norm/n1341
*1510 Norm/n1339
*1511 Norm/U1434
*1512 Norm/n1338
*1513 Norm/U1435
*1514 tempResult\[5\]
*1515 Adder/U98
*1516 Norm/n651
*1517 Norm/U871
*1518 Norm/U36
*1519 Norm/n1589
*1520 Norm/U1451
*1521 Norm/U1007
*1522 Norm/n1337
*1523 Norm/n1336
*1524 Norm/U1491
*1525 Norm/U885
*1526 Norm/n1334
*1527 Norm/U1481
*1528 Norm/U365
*1529 Norm/U114
*1530 Norm/n138
*1531 Norm/U215
*1532 Norm/n1332
*1533 Norm/U1489
*1534 Norm/n1333
*1535 Norm/U393
*1536 Norm/n1330
*1537 Norm/U1488
*1538 Norm/U1487
*1539 Norm/n1368
*1540 Norm/n1328
*1541 Norm/U257
*1542 Norm/n744
*1543 Norm/U394
*1544 Norm/n323
*1545 Norm/U448
*1546 Norm/U366
*1547 Norm/U364
*1548 Norm/U1053
*1549 Norm/U370
*1550 Norm/U132
*1551 Norm/n1327
*1552 Norm/U1486
*1553 Norm/U1485
*1554 Norm/n1365
*1555 Norm/U749
*1556 Norm/U128
*1557 Norm/n118
*1558 Norm/U187
*1559 Norm/n146
*1560 Norm/U232
*1561 Norm/n1325
*1562 Norm/U1484
*1563 Norm/U1483
*1564 Norm/U138
*1565 Norm/n234
*1566 Norm/U206
*1567 Norm/n292
*1568 Norm/U417
*1569 Norm/n1372
*1570 Norm/n1324
*1571 Norm/U1455
*1572 Norm/U1055
*1573 Norm/U158
*1574 Norm/n776
*1575 Norm/U1482
*1576 Norm/U989
*1577 Norm/n712
*1578 Norm/U939
*1579 Norm/n1331
*1580 Norm/n1321
*1581 Norm/U1479
*1582 Norm/U686
*1583 Norm/U684
*1584 Norm/n1319
*1585 Norm/U1476
*1586 Norm/U965
*1587 Norm/U233
*1588 Norm/n1584
*1589 Norm/U1475
*1590 Norm/n1320
*1591 Norm/U1452
*1592 Norm/U268
*1593 Norm/n53
*1594 Norm/U1478
*1595 Norm/U113
*1596 Norm/n1356
*1597 Norm/n1322
*1598 Norm/U1477
*1599 Norm/n1316
*1600 Norm/n1318
*1601 Norm/n139
*1602 Norm/U218
*1603 Norm/n1312
*1604 Norm/U1419
*1605 Norm/n1311
*1606 Norm/U1417
*1607 Norm/n1310
*1608 Norm/n1308
*1609 Norm/n1309
*1610 Norm/n1307
*1611 Norm/U1407
*1612 Norm/n1306
*1613 Norm/U1413
*1614 Norm/n1305
*1615 Norm/n1303
*1616 Norm/n1304
*1617 Norm/n1302
*1618 Norm/U1408
*1619 Norm/n1301
*1620 Norm/U1409
*1621 tempResult\[6\]
*1622 Adder/U99
*1623 Norm/n1300
*1624 Norm/U1461
*1625 Norm/U1460
*1626 Norm/n1335
*1627 Norm/n1299
*1628 Norm/U918
*1629 Norm/U396
*1630 Norm/U341
*1631 Norm/n525
*1632 Norm/U720
*1633 Norm/n1297
*1634 Norm/U1458
*1635 Norm/n1296
*1636 Norm/U496
*1637 Norm/n596
*1638 Norm/U804
*1639 Norm/n1295
*1640 Norm/U1456
*1641 Norm/U254
*1642 Norm/U207
*1643 Norm/n1293
*1644 Norm/U378
*1645 Norm/U121
*1646 Norm/n787
*1647 Norm/U412
*1648 Norm/n1291
*1649 Norm/U1454
*1650 Norm/U181
*1651 Norm/n264
*1652 Norm/U377
*1653 Norm/n1292
*1654 Norm/U1453
*1655 Norm/U339
*1656 Norm/n1290
*1657 Norm/U1426
*1658 Norm/U993
*1659 Norm/U415
*1660 Norm/n210
*1661 Norm/U314
*1662 Norm/n1287
*1663 Norm/U964
*1664 Norm/n114
*1665 Norm/U182
*1666 Norm/n221
*1667 Norm/U777
*1668 Norm/U327
*1669 Norm/U316
*1670 Norm/n1286
*1671 Norm/U1450
*1672 Norm/U1449
*1673 Norm/n1317
*1674 Norm/n1289
*1675 Norm/U1448
*1676 Norm/n1285
*1677 Norm/U1422
*1678 Norm/U145
*1679 Norm/n639
*1680 Norm/U852
*1681 Norm/n1282
*1682 Norm/n512
*1683 Norm/U910
*1684 Norm/U908
*1685 Norm/U703
*1686 Norm/n1281
*1687 Norm/U1394
*1688 Norm/U1393
*1689 Norm/n1280
*1690 Norm/n1278
*1691 Norm/n1279
*1692 Norm/n1277
*1693 Norm/U1383
*1694 Norm/U1333
*1695 Norm/n1276
*1696 Norm/U1389
*1697 Norm/n1275
*1698 Norm/n1273
*1699 Norm/n1274
*1700 Norm/n1272
*1701 Norm/U1384
*1702 Norm/n1271
*1703 Norm/U1385
*1704 tempResult\[7\]
*1705 Adder/U100
*1706 Norm/n415
*1707 Norm/U300
*1708 Norm/n1268
*1709 Norm/U1431
*1710 Norm/U1423
*1711 Norm/n402
*1712 Norm/U815
*1713 Norm/U557
*1714 Norm/U382
*1715 Norm/U915
*1716 Norm/n677
*1717 Norm/U900
*1718 Norm/U9
*1719 Norm/n1270
*1720 Norm/U802
*1721 Norm/U410
*1722 Norm/n1267
*1723 Norm/U1430
*1724 Norm/U1429
*1725 Norm/n1298
*1726 Norm/U1059
*1727 Norm/U441
*1728 Norm/U176
*1729 Norm/U241
*1730 Norm/n267
*1731 Norm/U383
*1732 Norm/n779
*1733 Norm/U381
*1734 Norm/n686
*1735 Norm/U1195
*1736 Norm/U33
*1737 Norm/n1265
*1738 Norm/U1428
*1739 Norm/U1427
*1740 Norm/n1294
*1741 Norm/U805
*1742 Norm/n89
*1743 Norm/U1424
*1744 Norm/U155
*1745 Norm/n772
*1746 Norm/U984
*1747 Norm/n633
*1748 Norm/U982
*1749 Norm/U292
*1750 Norm/n1263
*1751 Norm/U1425
*1752 Norm/n635
*1753 Norm/U849
*1754 Norm/n1264
*1755 Norm/U746
*1756 Norm/n1262
*1757 Norm/U1402
*1758 Norm/U994
*1759 Norm/n1288
*1760 Norm/n170
*1761 Norm/U267
*1762 Norm/n1260
*1763 Norm/U1421
*1764 Norm/n1255
*1765 Norm/U1397
*1766 Norm/U799
*1767 Norm/n1256
*1768 Norm/U798
*1769 Norm/n1394
*1770 Norm/n1252
*1771 Norm/U1381
*1772 Norm/n1251
*1773 Norm/n1249
*1774 Norm/n1250
*1775 Norm/n1248
*1776 Norm/U1354
*1777 Norm/n1247
*1778 Norm/U1362
*1779 Norm/n1246
*1780 Norm/n1244
*1781 Norm/n1245
*1782 Norm/n1243
*1783 Norm/U1357
*1784 Norm/n1242
*1785 Norm/U1358
*1786 tempResult\[8\]
*1787 Adder/U101
*1788 Norm/n1241
*1789 Norm/U1405
*1790 Norm/n1239
*1791 Norm/U1400
*1792 Norm/U912
*1793 Norm/n708
*1794 Norm/U936
*1795 Norm/U791
*1796 Norm/n1240
*1797 Norm/U1380
*1798 Norm/U1032
*1799 Norm/U792
*1800 Norm/U326
*1801 Norm/n1237
*1802 Norm/U1404
*1803 Norm/U1403
*1804 Norm/n1266
*1805 Norm/U930
*1806 Norm/U929
*1807 Norm/n1235
*1808 Norm/U911
*1809 Norm/U907
*1810 Norm/n684
*1811 Norm/n1231
*1812 Norm/U1401
*1813 Norm/n1232
*1814 Norm/U1399
*1815 Norm/U525
*1816 Norm/n634
*1817 Norm/U848
*1818 Norm/n1230
*1819 Norm/U1373
*1820 Norm/U784
*1821 Norm/n1228
*1822 Norm/U1371
*1823 Norm/n1227
*1824 Norm/U1398
*1825 Norm/U913
*1826 Norm/U28
*1827 Norm/U748
*1828 Norm/U392
*1829 Norm/n1258
*1830 Norm/U492
*1831 Norm/n1224
*1832 Norm/U1396
*1833 Norm/n1229
*1834 Norm/U1395
*1835 Norm/n584
*1836 Norm/U794
*1837 Norm/U556
*1838 Norm/n694
*1839 Norm/U42
*1840 Norm/n1812
*1841 Norm/n1221
*1842 Norm/n1219
*1843 Norm/n1217
*1844 Norm/n1218
*1845 Norm/n1216
*1846 Norm/U1281
*1847 Norm/n1215
*1848 Norm/U1331
*1849 Norm/n1214
*1850 Norm/n1212